9

 C    1.070959595672   -0.262157370340   -0.007382291746
 C    1.916623605152    0.916404739369   -0.423069224026
 O    1.502241767908    1.306541646157   -1.715261213210
 H    0.010285984543    0.015237153640    0.000880470937
 H    1.199506087895   -1.090311041802   -0.714263982639
 H    1.349557163614   -0.610340153168    0.994159346913
 H    2.984348081260    0.633061236956   -0.412447877888
 H    1.794028258776    1.739632037730    0.303359872422
 H    2.039449455181    2.058031751458   -1.983675100764
