9

 C    1.059455155274   -0.283606246498    0.007742392166
 C    1.914573078385    0.881465470840   -0.445616672728
 O    1.537722877319    1.375647303514   -1.712256470877
 H   -0.001111527725   -0.005293581011    0.003056126695
 H    1.185828876661   -1.147481486135   -0.660452944726
 H    1.332393908736   -0.607150319360    1.020292072716
 H    2.982065681763    0.598065074176   -0.424756894647
 H    1.798987917840    1.726158652636    0.245077288667
 H    1.637384031747    0.654095131838   -2.342484897265
