9

 C    1.059455160785   -0.283606255751    0.007742387689
 C    1.914573072936    0.881465476054   -0.445616669007
 O    1.537722867882    1.375647313755   -1.712256464694
 H   -0.001111527108   -0.005293601638    0.003056121927
 H    1.185828893569   -1.147481491220   -0.660452955459
 H    1.332393916541   -0.607150332083    1.020292068444
 H    2.982065681146    0.598065090579   -0.424756891465
 H    1.798987902370    1.726158653551    0.245077299183
 H    1.637384031878    0.654095146753   -2.342484896618
