9

 C    1.070959595815   -0.262157370086   -0.007382291667
 C    1.916623604765    0.916404738909   -0.423069224128
 O    1.502241768167    1.306541646192   -1.715261213197
 H    0.010285985470    0.015237153383    0.000880471051
 H    1.199506087822   -1.090311041045   -0.714263982017
 H    1.349557163522   -0.610340152825    0.994159346303
 H    2.984348080523    0.633061236809   -0.412447877991
 H    1.794028258639    1.739632037101    0.303359871690
 H    2.039449455276    2.058031751563   -1.983675100044
