9

 C    1.070959596196   -0.262157369637   -0.007382291860
 C    1.916623604797    0.916404738638   -0.423069224087
 O    1.502241768441    1.306541645820   -1.715261212522
 H    0.010285986097    0.015237153608    0.000880470769
 H    1.199506087882   -1.090311040260   -0.714263981707
 H    1.349557163714   -0.610340152250    0.994159345568
 H    2.984348079335    0.633061236951   -0.412447877846
 H    1.794028258716    1.739632036183    0.303359870917
 H    2.039449454823    2.058031750948   -1.983675099232
